FoamFile
{
	version	2.0;
	format	ascii;
	class	volScalarField;
	object	p;
}
// ***************************************************************** //

dimensions	[1 -1 -2 0 0 0 0];

internalField   uniform 1.0;

// Pe/Po=0.16

boundaryField
{
    inlet
    {
        type            totalPressure;
        value           uniform 1.0;
        p0              uniform 1.0;
        rho             none;
        psi             thermo:psi;
        gamma           1.4;
    }

    outlet
    {
        type            zeroGradient;
    }

    nozzle
    {
        type            zeroGradient;
    }

    front 
    {   
        type            wedge;
    }   

    back 
    {   
        type            wedge;
    }   
}


// ***************************************************************** //
