FoamFile
{
        version 2.0;
        format  ascii;
        class   volScalarField;
        object  T;
}
// ***************************************************************** //

dimensions      [0 0 0 1 0 0 0];

internalField   uniform 1.0;

boundaryField
{
    inlet
    {
        type            totalTemperature; 
        gamma           1.4;
        T0              uniform 1.0;
    }

    outlet
    {
        type            zeroGradient;
    }   

    nozzle  
    {       
        type            zeroGradient;
    }

    front 
    {   
        type            wedge;
    }   

    back 
    {   
        type            wedge;
    }   
}

// ***************************************************************** //
