/*--------------------------------*- C++ -*----------------------------------*\
| =========                 |                                                 |
| \\      /  F ield         | OpenFOAM: The Open Source CFD Toolbox           |
|  \\    /   O peration     | Version:  dev                                   |
|   \\  /    A nd           | Web:      www.OpenFOAM.org                      |
|    \\/     M anipulation  |                                                 |
\*---------------------------------------------------------------------------*/
FoamFile
{
    version     2.0;
    format      ascii;
    class       dictionary;
    location    "system";
    object      setFieldsDict;
}
// * * * * * * * * * * * * * * * * * * * * * * * * * * * * * * * * * * * * * //

// set defaults everywhere
defaultFieldValues (
    volVectorFieldValue U (0.0 0.0 0.0)
    volScalarFieldValue T 1.0
    volScalarFieldValue p 1.0
);

// specific regions' values

regions 
( 
  boxToCell
  {
    box (2.8 -0.1 -1.0) (100.0 100.0 1.0);
    fieldValues
    (
    	volVectorFieldValue U (0.0 0.0 0.0)
    	volScalarFieldValue T 1.0
    	volScalarFieldValue p 0.16
    );
  }
); 
// ************************************************************************* //
