/*--------------------------------*- C++ -*----------------------------------*\
  =========                 |
  \\      /  F ield         | OpenFOAM: The Open Source CFD Toolbox
   \\    /   O peration     | Website:  https://openfoam.org
    \\  /    A nd           | Version:  6
     \\/     M anipulation  |
\*---------------------------------------------------------------------------*/
FoamFile
{
    version     2.0;
    format      ascii;
    class       dictionary;
    object      blockMeshDict;
}

// * * * * * * * * * * * * * * * * * * * * * * * * * * * * * * * * * * * * * //

convertToMeters 1;

vertices
(
  (-5.0 -5.0  0.45 ) //  0
  ( 5.0 -5.0  0.45 ) //  1
  ( 5.0  5.0  0.45 ) //  2 
  (-5.0  5.0  0.45 ) //  3 

  (-5.0 -5.0 -0.45 ) //  4 
  ( 5.0 -5.0 -0.45 ) //  5
  ( 5.0  5.0 -0.45 ) //  6 
  (-5.0  5.0 -0.45 ) //  7 

);

blocks
(
    hex (0 1 5 4 3 2 6 7)   ( 10 10 10 ) simpleGrading (1 1 1)
);

edges
(
);

boundary
(
    front
    {
        type patch;
        faces
        (
            ( 0 1 2 3 )
        );
    }
    back 
    {
        type patch;
        faces
        (
            ( 4 5 6 7 ) 
        );
    }
    inlet
    {
        type patch;
        faces
        (
            ( 0 3 7 4 )
        );
    }
    outlet
    {
        type patch;
        faces
        (
            ( 1 2 6 5 )
        );
    }
    bottom 
    {
        type patch;
        faces
        (
            ( 0 1 5 4 )
        );
    }
    top 
    {
        type patch;
        faces
        (
            ( 3 2 6 7 )
        );
    }
);

// ************************************************************************* //
